electric-grid/physical/synthetic/sc500/models/southcarolina500.raw
 0,    100.00, 33, 0, 0, 60.00       / March 15, 2017 14:58:45; Simulator Version 20 Beta; BuildDate 2017_3_13


    1,'WINNSBORO 0 ', 138.0000,1,   1,   2,   1,1.01216984,  -7.292753, 1.10000, 0.90000, 1.10000, 0.90000
    2,'WINNSBORO 1 ', 138.0000,1,   1,   2,   1,1.01159012,  -7.364558, 1.10000, 0.90000, 1.10000, 0.90000
    3,'COLUMBIA 1~3', 138.0000,1,   1,   2,   1,1.00623679,  -8.595016, 1.10000, 0.90000, 1.10000, 0.90000
    4,'COLUMBIA 1~4', 138.0000,1,   1,   2,   1,1.00407279,  -8.845873, 1.10000, 0.90000, 1.10000, 0.90000
    5,'SMYRNA 0    ', 138.0000,1,   1,   1,   1,1.01486611,   2.141622, 1.10000, 0.90000, 1.10000, 0.90000
    6,'SMYRNA 1    ', 138.0000,1,   1,   1,   1,1.01481843,   2.135518, 1.10000, 0.90000, 1.10000, 0.90000
    7,'EASTOVER 2 0', 345.0000,1,   1,   2,   1,1.03386915,  -3.454433, 1.10000, 0.90000, 1.10000, 0.90000
    8,'EASTOVER 2 1', 138.0000,1,   1,   2,   1,1.02697039,  -5.235297, 1.10000, 0.90000, 1.10000, 0.90000
    9,'EASTOVER 2 2',  13.8000,2,   1,   2,   1,1.03999996,  -0.655940, 1.10000, 0.90000, 1.10000, 0.90000
   10,'CHAPPELLS ~6', 138.0000,1,   1,   2,   1,1.01672971, -10.329334, 1.10000, 0.90000, 1.10000, 0.90000
   11,'CHAPPELLS ~7', 138.0000,1,   1,   2,   1,1.01669300, -10.333480, 1.10000, 0.90000, 1.10000, 0.90000
   12,'PELZER 0    ', 138.0000,1,   1,   1,   1,0.99182189, -11.062240, 1.10000, 0.90000, 1.10000, 0.90000
   13,'PELZER 1    ', 138.0000,1,   1,   1,   1,0.99127436, -11.126515, 1.10000, 0.90000, 1.10000, 0.90000
   14,'SENECA 3 0  ', 345.0000,1,   1,   1,   1,1.03009427,   0.068827, 1.10000, 0.90000, 1.10000, 0.90000
   15,'SENECA 3 1  ', 138.0000,1,   1,   1,   1,1.02139008,  -2.551455, 1.10000, 0.90000, 1.10000, 0.90000
   16,'SENECA 3 2  ',  13.8000,2,   1,   1,   1,1.03999996,   2.912436, 1.10000, 0.90000, 1.10000, 0.90000
   17,'SENECA 3 3  ',  13.8000,3,   1,   1,   1,1.03999996,   3.474049, 1.10000, 0.90000, 1.10000, 0.90000
   18,'SENECA 3 4  ',  13.8000,2,   1,   1,   1,1.03999996,   4.367797, 1.10000, 0.90000, 1.10000, 0.90000
   19,'MONETTA 0   ', 138.0000,1,   1,   2,   1,1.01836598, -10.796903, 1.10000, 0.90000, 1.10000, 0.90000
   20,'MONETTA 1   ', 138.0000,1,   1,   2,   1,1.01829565, -10.806292, 1.10000, 0.90000, 1.10000, 0.90000
   21,'LEXINGTON ~2', 138.0000,1,   1,   2,   1,1.00954187,  -8.858856, 1.10000, 0.90000, 1.10000, 0.90000
   22,'LEXINGTON ~3', 138.0000,1,   1,   2,   1,1.00741601,  -9.111627, 1.10000, 0.90000, 1.10000, 0.90000
   23,'WELLFORD 0  ', 345.0000,1,   1,   1,   1,1.02731049,  -4.460517, 1.10000, 0.90000, 1.10000, 0.90000
   24,'WELLFORD 1  ', 138.0000,1,   1,   1,   1,1.01235747,  -7.345727, 1.10000, 0.90000, 1.10000, 0.90000
   25,'WELLFORD 2  ', 138.0000,1,   1,   1,   1,1.01232183,  -7.350150, 1.10000, 0.90000, 1.10000, 0.90000
   26,'WELLFORD 3  ', 138.0000,1,   1,   1,   1,1.01202381,  -7.389089, 1.10000, 0.90000, 1.10000, 0.90000
   27,'LAURENS 0   ', 138.0000,1,   1,   1,   1,1.01323128, -13.077732, 1.10000, 0.90000, 1.10000, 0.90000
   28,'LAURENS 1   ', 138.0000,1,   1,   1,   1,1.01214457, -13.210629, 1.10000, 0.90000, 1.10000, 0.90000
   29,'COLUMBIA 1~1', 138.0000,1,   1,   2,   1,1.00944281, -11.107322, 1.10000, 0.90000, 1.10000, 0.90000
   30,'COLUMBIA 1~2', 138.0000,1,   1,   2,   1,1.00795424, -11.283761, 1.10000, 0.90000, 1.10000, 0.90000
   31,'WINDSOR 0   ', 138.0000,1,   1,   2,   1,1.03246546, -13.545102, 1.10000, 0.90000, 1.10000, 0.90000
   32,'WINDSOR 1   ', 138.0000,1,   1,   2,   1,1.03231978, -13.562228, 1.10000, 0.90000, 1.10000, 0.90000
   33,'PROSPERITY 0', 138.0000,1,   1,   2,   1,1.00622392, -11.732164, 1.10000, 0.90000, 1.10000, 0.90000
   34,'PROSPERITY 1', 138.0000,1,   1,   2,   1,1.00585079, -11.776277, 1.10000, 0.90000, 1.10000, 0.90000
   35,'NORTH AUGU~3', 138.0000,1,   1,   2,   1,1.01766539, -12.374649, 1.10000, 0.90000, 1.10000, 0.90000
   36,'NORTH AUGU~4', 138.0000,1,   1,   2,   1,1.01707172, -12.443631, 1.10000, 0.90000, 1.10000, 0.90000
   37,'LANDO 0     ', 138.0000,1,   1,   1,   1,1.01946342,   2.515492, 1.10000, 0.90000, 1.10000, 0.90000
   38,'LANDO 1     ', 138.0000,1,   1,   1,   1,1.01946151,   2.515231, 1.10000, 0.90000, 1.10000, 0.90000
   39,'GAFFNEY 3 0 ', 345.0000,1,   1,   1,   1,1.02954912,  -4.337351, 1.10000, 0.90000, 1.10000, 0.90000
   40,'GAFFNEY 3 1 ', 138.0000,1,   1,   1,   1,1.02309358,  -5.544634, 1.10000, 0.90000, 1.10000, 0.90000
   41,'GAFFNEY 3 2 ', 138.0000,1,   1,   1,   1,1.02213979,  -5.663918, 1.10000, 0.90000, 1.10000, 0.90000
   42,'CLARKS HIL~4', 138.0000,1,   1,   2,   1,1.02412856, -10.118250, 1.10000, 0.90000, 1.10000, 0.90000
   43,'CLARKS HIL~5', 138.0000,1,   1,   2,   1,1.02406871, -10.125498, 1.10000, 0.90000, 1.10000, 0.90000
   44,'JENKINSVIL~1', 138.0000,1,   1,   2,   1,1.01835072,  -6.304916, 1.10000, 0.90000, 1.10000, 0.90000
   45,'JENKINSVIL~2', 138.0000,1,   1,   2,   1,1.01831746,  -6.309076, 1.10000, 0.90000, 1.10000, 0.90000
   46,'WOODRUFF 0  ', 138.0000,1,   1,   1,   1,1.00416839,  -9.706521, 1.10000, 0.90000, 1.10000, 0.90000
   47,'WOODRUFF 1  ', 138.0000,1,   1,   1,   1,1.00350845,  -9.787813, 1.10000, 0.90000, 1.10000, 0.90000
   48,'IVA 0       ', 138.0000,1,   1,   1,   1,1.00096107, -14.274960, 1.10000, 0.90000, 1.10000, 0.90000
   49,'IVA 1       ',  13.8000,2,   1,   1,   1,1.00281000, -14.072881, 1.10000, 0.90000, 1.10000, 0.90000
   50,'IVA 2       ',  13.8000,2,   1,   1,   1,1.00311327, -14.037239, 1.10000, 0.90000, 1.10000, 0.90000
   51,'IVA 3       ', 138.0000,1,   1,   1,   1,1.00095522, -14.275669, 1.10000, 0.90000, 1.10000, 0.90000
   52,'IVA 4       ', 138.0000,1,   1,   1,   1,1.00060749, -14.317466, 1.10000, 0.90000, 1.10000, 0.90000
   53,'CAYCE 0     ', 138.0000,1,   1,   2,   1,1.01654124,  -9.773880, 1.10000, 0.90000, 1.10000, 0.90000
   54,'CAYCE 1     ', 138.0000,1,   1,   2,   1,1.01602793,  -9.829491, 1.10000, 0.90000, 1.10000, 0.90000
   55,'TROY 0      ', 138.0000,1,   1,   1,   1,1.01914012,  -9.690781, 1.10000, 0.90000, 1.10000, 0.90000
   56,'TROY 1      ', 138.0000,1,   1,   1,   1,1.01910651,  -9.694682, 1.10000, 0.90000, 1.10000, 0.90000
   57,'SIMPSONVIL~3', 345.0000,1,   1,   1,   1,1.01024759,  -6.150021, 1.10000, 0.90000, 1.10000, 0.90000
   58,'SIMPSONVIL~4', 138.0000,1,   1,   1,   1,1.00198936,  -8.970641, 1.10000, 0.90000, 1.10000, 0.90000
   59,'SIMPSONVIL~5', 138.0000,1,   1,   1,   1,0.99965429,  -9.267558, 1.10000, 0.90000, 1.10000, 0.90000
   60,'MAYO 0      ', 138.0000,1,   1,   1,   1,1.01955903,  -6.104997, 1.10000, 0.90000, 1.10000, 0.90000
   61,'MAYO 1      ', 138.0000,1,   1,   1,   1,1.01955616,  -6.105377, 1.10000, 0.90000, 1.10000, 0.90000
   62,'BELTON 2 0  ', 138.0000,1,   1,   1,   1,1.00981164,  -8.434964, 1.10000, 0.90000, 1.10000, 0.90000
   63,'BELTON 2 1  ',  13.8000,2,   1,   1,   1,1.00981164,  -8.434964, 1.10000, 0.90000, 1.10000, 0.90000
   64,'BELTON 2 2  ', 138.0000,1,   1,   1,   1,1.00928235,  -8.495522, 1.10000, 0.90000, 1.10000, 0.90000
   65,'BRADLEY 0   ', 345.0000,1,   1,   1,   1,1.02541149,  -7.156160, 1.10000, 0.90000, 1.10000, 0.90000
   66,'BRADLEY 1   ', 138.0000,1,   1,   1,   1,1.02131593,  -8.854026, 1.10000, 0.90000, 1.10000, 0.90000
   67,'BRADLEY 2   ', 138.0000,1,   1,   1,   1,1.02124619,  -8.862013, 1.10000, 0.90000, 1.10000, 0.90000
   68,'ENOREE 0    ', 138.0000,1,   1,   1,   1,1.00959444, -10.090654, 1.10000, 0.90000, 1.10000, 0.90000
   69,'ENOREE 1    ', 138.0000,1,   1,   1,   1,1.00930262, -10.127086, 1.10000, 0.90000, 1.10000, 0.90000
   70,'HONEA PATH~2', 138.0000,1,   1,   1,   1,0.99522310, -11.369091, 1.10000, 0.90000, 1.10000, 0.90000
   71,'HONEA PATH~3',  13.8000,2,   1,   1,   1,0.99595255, -11.266605, 1.10000, 0.90000, 1.10000, 0.90000
   72,'HONEA PATH~4',  13.8000,2,   1,   1,   1,0.99639368, -11.203047, 1.10000, 0.90000, 1.10000, 0.90000
   73,'HONEA PATH~5',  13.8000,2,   1,   1,   1,0.99686670, -11.152281, 1.10000, 0.90000, 1.10000, 0.90000
   74,'SPRINGFIEL~1', 138.0000,1,   1,   2,   1,1.02504814, -13.384749, 1.10000, 0.90000, 1.10000, 0.90000
   75,'SPRINGFIEL~2', 138.0000,1,   1,   2,   1,1.02497184, -13.393951, 1.10000, 0.90000, 1.10000, 0.90000
   76,'EDGEMOOR 0  ', 138.0000,1,   1,   1,   1,1.01793778,   3.392810, 1.10000, 0.90000, 1.10000, 0.90000
   77,'EDGEMOOR 1  ', 138.0000,1,   1,   1,   1,1.01783001,   3.380789, 1.10000, 0.90000, 1.10000, 0.90000
   78,'NEWRY 0     ', 138.0000,1,   1,   1,   1,1.01266253,  -4.970776, 1.10000, 0.90000, 1.10000, 0.90000
   79,'NEWRY 1     ', 138.0000,1,   1,   1,   1,1.01265693,  -4.971439, 1.10000, 0.90000, 1.10000, 0.90000
   80,'CLARKS HIL~1', 345.0000,1,   1,   2,   1,1.03188443,  -6.691338, 1.10000, 0.90000, 1.10000, 0.90000
   81,'CLARKS HIL~2', 138.0000,1,   1,   2,   1,1.02620733,  -9.277308, 1.10000, 0.90000, 1.10000, 0.90000
   82,'CLARKS HIL~3',  13.8000,2,   1,   2,   1,1.03999996,  -0.674854, 1.10000, 0.90000, 1.10000, 0.90000
   83,'NEWBERRY 0  ', 138.0000,1,   1,   2,   1,1.00430727, -12.128204, 1.10000, 0.90000, 1.10000, 0.90000
   84,'NEWBERRY 1  ', 138.0000,1,   1,   2,   1,1.00331819, -12.249896, 1.10000, 0.90000, 1.10000, 0.90000
   85,'AIKEN 3 0   ', 138.0000,1,   1,   2,   1,1.02616227, -12.363804, 1.10000, 0.90000, 1.10000, 0.90000
   86,'AIKEN 3 1   ', 138.0000,1,   1,   2,   1,1.02587187, -12.399490, 1.10000, 0.90000, 1.10000, 0.90000
   87,'ROCK HILL ~5', 138.0000,1,   1,   1,   1,1.00115740,   4.158676, 1.10000, 0.90000, 1.10000, 0.90000
   88,'ROCK HILL ~6', 138.0000,1,   1,   1,   1,1.00107479,   4.148458, 1.10000, 0.90000, 1.10000, 0.90000
   89,'CAMERON 0   ', 138.0000,1,   1,   2,   1,1.01781332,  -7.650794, 1.10000, 0.90000, 1.10000, 0.90000
   90,'CAMERON 1   ', 138.0000,1,   1,   2,   1,1.01772141,  -7.662924, 1.10000, 0.90000, 1.10000, 0.90000
   91,'SENECA 2 0  ', 138.0000,1,   1,   1,   1,1.01176405,  -4.102060, 1.10000, 0.90000, 1.10000, 0.90000
   92,'SENECA 2 1  ', 138.0000,1,   1,   1,   1,1.01077330,  -4.228292, 1.10000, 0.90000, 1.10000, 0.90000
   93,'BLAIR 0     ', 138.0000,1,   1,   2,   1,1.01549649,  -2.983319, 1.10000, 0.90000, 1.10000, 0.90000
   94,'BLAIR 1     ', 138.0000,1,   1,   2,   1,1.01542401,  -2.992412, 1.10000, 0.90000, 1.10000, 0.90000
   95,'WALHALLA 0  ', 138.0000,1,   1,   1,   1,1.01218367,  -4.069760, 1.10000, 0.90000, 1.10000, 0.90000
   96,'WALHALLA 1  ', 138.0000,1,   1,   1,   1,1.01170242,  -4.128795, 1.10000, 0.90000, 1.10000, 0.90000
   97,'ANDERSON 4 0', 138.0000,1,   1,   1,   1,1.00467610, -14.693084, 1.10000, 0.90000, 1.10000, 0.90000
   98,'ANDERSON 4 1', 138.0000,1,   1,   1,   1,1.00407231, -14.773865, 1.10000, 0.90000, 1.10000, 0.90000
   99,'PACOLET 0   ', 138.0000,1,   1,   1,   1,1.02221203,  -5.694555, 1.10000, 0.90000, 1.10000, 0.90000
  100,'PACOLET 1   ', 138.0000,1,   1,   1,   1,1.02199888,  -5.720127, 1.10000, 0.90000, 1.10000, 0.90000
  101,'PACOLET 2   ', 138.0000,1,   1,   1,   1,1.02219832,  -5.696073, 1.10000, 0.90000, 1.10000, 0.90000
  102,'ABBEVILLE 0 ', 138.0000,1,   1,   1,   1,1.00294638, -13.120671, 1.10000, 0.90000, 1.10000, 0.90000
  103,'ABBEVILLE 1 ', 138.0000,1,   1,   1,   1,1.00230777, -13.202726, 1.10000, 0.90000, 1.10000, 0.90000
  104,'AIKEN 2 0   ', 138.0000,1,   1,   2,   1,1.01841426, -13.946336, 1.10000, 0.90000, 1.10000, 0.90000
  105,'AIKEN 2 1   ', 138.0000,1,   1,   2,   1,1.01708901, -14.105046, 1.10000, 0.90000, 1.10000, 0.90000
  106,'JOHNSTON 0  ', 138.0000,1,   1,   2,   1,1.02028716, -11.273091, 1.10000, 0.90000, 1.10000, 0.90000
  107,'JOHNSTON 1  ', 138.0000,1,   1,   2,   1,1.02006269, -11.299992, 1.10000, 0.90000, 1.10000, 0.90000
  108,'SPARTANBU~14', 138.0000,1,   1,   1,   1,1.01514816,  -6.628576, 1.10000, 0.90000, 1.10000, 0.90000
  109,'SPARTANBU~15', 138.0000,1,   1,   1,   1,1.01446223,  -6.703604, 1.10000, 0.90000, 1.10000, 0.90000
  110,'GAFFNEY 2 0 ', 138.0000,1,   1,   1,   1,1.02740514,  -1.483451, 1.10000, 0.90000, 1.10000, 0.90000
  111,'GAFFNEY 2 1 ', 138.0000,1,   1,   1,   1,1.02648306,  -1.604187, 1.10000, 0.90000, 1.10000, 0.90000
  112,'LEESVILLE 0 ', 138.0000,1,   1,   2,   1,1.01409984, -10.274984, 1.10000, 0.90000, 1.10000, 0.90000
  113,'LEESVILLE 1 ', 138.0000,1,   1,   2,   1,1.01342905, -10.350557, 1.10000, 0.90000, 1.10000, 0.90000
  114,'LANGLEY 0   ', 138.0000,1,   1,   2,   1,1.01915872, -12.782173, 1.10000, 0.90000, 1.10000, 0.90000
  115,'LANGLEY 1   ', 138.0000,1,   1,   2,   1,1.01908910, -12.791178, 1.10000, 0.90000, 1.10000, 0.90000
  116,'LANGLEY 2   ', 138.0000,1,   1,   2,   1,1.01911569, -12.787773, 1.10000, 0.90000, 1.10000, 0.90000
  117,'DONALDS 0   ', 138.0000,1,   1,   1,   1,1.00453579, -10.440633, 1.10000, 0.90000, 1.10000, 0.90000
  118,'DONALDS 1   ', 138.0000,1,   1,   1,   1,1.00438976, -10.459100, 1.10000, 0.90000, 1.10000, 0.90000
  119,'GREENVILL~17', 138.0000,1,   1,   1,   1,0.98711377, -11.917873, 1.10000, 0.90000, 1.10000, 0.90000
  120,'GREENVILL~18', 138.0000,1,   1,   1,   1,0.98667324, -11.972067, 1.10000, 0.90000, 1.10000, 0.90000
  121,'COLUMBIA 9 0', 138.0000,1,   1,   2,   1,1.01291621, -10.493538, 1.10000, 0.90000, 1.10000, 0.90000
  122,'COLUMBIA 9 1', 138.0000,1,   1,   2,   1,1.01208091, -10.603845, 1.10000, 0.90000, 1.10000, 0.90000
  123,'SALEM 3 0   ', 345.0000,1,   1,   1,   1,1.03009236,  -0.277505, 1.10000, 0.90000, 1.10000, 0.90000
  124,'SALEM 3 1   ', 138.0000,1,   1,   1,   1,1.02765453,  -0.980921, 1.10000, 0.90000, 1.10000, 0.90000
  125,'SALEM 3 2   ',  13.8000,2,   1,   1,   1,1.03009236,  -0.277505, 1.10000, 0.90000, 1.10000, 0.90000
  126,'SALEM 3 3   ',  13.8000,2,   1,   1,   1,1.03009236,  -0.277505, 1.10000, 0.90000, 1.10000, 0.90000
  127,'SALEM 3 4   ',  13.8000,2,   1,   1,   1,1.03999996,   3.872702, 1.10000, 0.90000, 1.10000, 0.90000
  128,'SALEM 3 5   ',  13.8000,2,   1,   1,   1,1.03953290,   1.091191, 1.10000, 0.90000, 1.10000, 0.90000
  129,'GREENVILL~15', 138.0000,1,   1,   1,   1,0.98422194, -12.434627, 1.10000, 0.90000, 1.10000, 0.90000
  130,'GREENVILL~16', 138.0000,1,   1,   1,   1,0.98258084, -12.620261, 1.10000, 0.90000, 1.10000, 0.90000
  131,'COWPENS 0   ', 138.0000,1,   1,   1,   1,1.02027261,  -5.976244, 1.10000, 0.90000, 1.10000, 0.90000
  132,'COWPENS 1   ', 138.0000,1,   1,   1,   1,1.01986766,  -6.023923, 1.10000, 0.90000, 1.10000, 0.90000
  133,'WESTMINSTE~3', 138.0000,1,   1,   1,   1,1.01291430,  -4.028597, 1.10000, 0.90000, 1.10000, 0.90000
  134,'WESTMINSTE~4', 138.0000,1,   1,   1,   1,1.01235032,  -4.098777, 1.10000, 0.90000, 1.10000, 0.90000
  135,'SAINT MATT~1', 138.0000,1,   1,   2,   1,1.01527667,  -7.851748, 1.10000, 0.90000, 1.10000, 0.90000
  136,'SAINT MATT~2', 138.0000,1,   1,   2,   1,1.01487422,  -7.904033, 1.10000, 0.90000, 1.10000, 0.90000
  137,'GREENWOOD ~3', 138.0000,1,   1,   1,   1,1.00684536, -10.557651, 1.10000, 0.90000, 1.10000, 0.90000
  138,'GREENWOOD ~4', 138.0000,1,   1,   1,   1,1.00561595, -10.719761, 1.10000, 0.90000, 1.10000, 0.90000
  139,'FINGERVILL~1', 138.0000,1,   1,   1,   1,1.01584506,  -6.638370, 1.10000, 0.90000, 1.10000, 0.90000
  140,'FINGERVILL~2', 138.0000,1,   1,   1,   1,1.01584148,  -6.638798, 1.10000, 0.90000, 1.10000, 0.90000
  141,'ROCK HILL ~3', 138.0000,1,   1,   1,   1,1.00073969,   0.904733, 1.10000, 0.90000, 1.10000, 0.90000
  142,'ROCK HILL ~4', 138.0000,1,   1,   1,   1,0.99814326,   0.605476, 1.10000, 0.90000, 1.10000, 0.90000
  143,'YORK 2 0    ', 138.0000,1,   1,   1,   1,1.01885676,   9.880967, 1.10000, 0.90000, 1.10000, 0.90000
  144,'YORK 2 1    ',  13.8000,2,   1,   1,   1,1.03999996,  22.413558, 1.10000, 0.90000, 1.10000, 0.90000
  145,'YORK 2 2    ',  13.8000,2,   1,   1,   1,1.03999996,  12.557683, 1.10000, 0.90000, 1.10000, 0.90000
  146,'CHAPIN 0    ', 345.0000,1,   1,   2,   1,1.02880740,  -4.406195, 1.10000, 0.90000, 1.10000, 0.90000
  147,'CHAPIN 1    ', 138.0000,1,   1,   2,   1,1.01717687,  -5.091067, 1.10000, 0.90000, 1.10000, 0.90000
  148,'CHAPIN 2    ', 138.0000,1,   1,   2,   1,1.01624691,  -5.211278, 1.10000, 0.90000, 1.10000, 0.90000
  149,'MODOC 0     ', 138.0000,1,   1,   2,   1,1.02207649, -10.214260, 1.10000, 0.90000, 1.10000, 0.90000
  150,'MODOC 1     ', 138.0000,1,   1,   2,   1,1.02205205, -10.217155, 1.10000, 0.90000, 1.10000, 0.90000
  151,'SPARTANBU~11', 345.0000,1,   1,   1,   1,1.02819884,  -4.565813, 1.10000, 0.90000, 1.10000, 0.90000
  152,'SPARTANBU~12', 138.0000,1,   1,   1,   1,1.02737427,  -6.964574, 1.10000, 0.90000, 1.10000, 0.90000
  153,'SPARTANBU~13', 138.0000,1,   1,   1,   1,1.02613664,  -7.115000, 1.10000, 0.90000, 1.10000, 0.90000
  154,'BOILING SP~1', 138.0000,1,   1,   1,   1,1.01023936,  -7.509773, 1.10000, 0.90000, 1.10000, 0.90000
  155,'BOILING SP~2', 138.0000,1,   1,   1,   1,1.00935423,  -7.617307, 1.10000, 0.90000, 1.10000, 0.90000
  156,'GREENVILL~13', 138.0000,1,   1,   1,   1,0.98945850, -11.146434, 1.10000, 0.90000, 1.10000, 0.90000
  157,'GREENVILL~14', 138.0000,1,   1,   1,   1,0.98779511, -11.357826, 1.10000, 0.90000, 1.10000, 0.90000
  158,'PELION 0    ', 138.0000,1,   1,   2,   1,1.01085949, -10.054788, 1.10000, 0.90000, 1.10000, 0.90000
  159,'PELION 1    ', 138.0000,1,   1,   2,   1,1.01048970, -10.102379, 1.10000, 0.90000, 1.10000, 0.90000
  160,'GRANITEVIL~1', 138.0000,1,   1,   2,   1,1.01985502, -11.525286, 1.10000, 0.90000, 1.10000, 0.90000
  161,'GRANITEVIL~2', 138.0000,1,   1,   2,   1,1.01947105, -11.574194, 1.10000, 0.90000, 1.10000, 0.90000
  162,'IRMO 0      ', 345.0000,1,   1,   2,   1,1.02909601,  -4.368150, 1.10000, 0.90000, 1.10000, 0.90000
  163,'IRMO 1      ', 138.0000,1,   1,   2,   1,1.02521443,  -5.148050, 1.10000, 0.90000, 1.10000, 0.90000
  164,'IRMO 2      ', 138.0000,1,   1,   2,   1,1.02356493,  -5.352447, 1.10000, 0.90000, 1.10000, 0.90000
  165,'SALEM 2 0   ', 345.0000,1,   1,   1,   1,1.03039443,   0.075112, 1.10000, 0.90000, 1.10000, 0.90000
  166,'SALEM 2 1   ', 138.0000,1,   1,   1,   1,1.02459157,  -1.492964, 1.10000, 0.90000, 1.10000, 0.90000
  167,'SALEM 2 2   ',  13.8000,2,   1,   1,   1,1.03999996,   2.295907, 1.10000, 0.90000, 1.10000, 0.90000
  168,'SALEM 2 3   ',  13.8000,2,   1,   1,   1,1.03999996,   3.744285, 1.10000, 0.90000, 1.10000, 0.90000
  169,'SALEM 2 4   ',  13.8000,2,   1,   1,   1,1.03999996,   5.365912, 1.10000, 0.90000, 1.10000, 0.90000
  170,'WEST UNION 0', 138.0000,1,   1,   1,   1,1.01170015,  -4.207722, 1.10000, 0.90000, 1.10000, 0.90000
  171,'WEST UNION 1', 138.0000,1,   1,   1,   1,1.01151419,  -4.232924, 1.10000, 0.90000, 1.10000, 0.90000
  172,'CROSS HILL 0', 138.0000,1,   1,   1,   1,1.00502145,  -9.319500, 1.10000, 0.90000, 1.10000, 0.90000
  173,'CROSS HILL 1', 138.0000,1,   1,   1,   1,1.00497437,  -9.324754, 1.10000, 0.90000, 1.10000, 0.90000
  174,'CROSS HILL 2', 138.0000,1,   1,   1,   1,1.00491989,  -9.331447, 1.10000, 0.90000, 1.10000, 0.90000
  175,'FORT LAWN 0 ', 345.0000,1,   1,   1,   1,1.03397620,  -0.091223, 1.10000, 0.90000, 1.10000, 0.90000
  176,'FORT LAWN 1 ', 138.0000,1,   1,   1,   1,1.02316272,   0.719265, 1.10000, 0.90000, 1.10000, 0.90000
  177,'FORT LAWN 2 ', 138.0000,1,   1,   1,   1,1.02303135,   0.702440, 1.10000, 0.90000, 1.10000, 0.90000
  178,'FORT LAWN 3 ', 138.0000,1,   1,   1,   1,1.02306116,   0.708178, 1.10000, 0.90000, 1.10000, 0.90000
  179,'NORTH 0     ', 138.0000,1,   1,   2,   1,1.00425959, -11.279192, 1.10000, 0.90000, 1.10000, 0.90000
  180,'NORTH 1     ', 138.0000,1,   1,   2,   1,1.00403774, -11.304231, 1.10000, 0.90000, 1.10000, 0.90000
  181,'ANDERSON 3 0', 138.0000,1,   1,   1,   1,1.01124156, -14.491344, 1.10000, 0.90000, 1.10000, 0.90000
  182,'ANDERSON 3 1', 138.0000,1,   1,   1,   1,1.00991070, -14.655747, 1.10000, 0.90000, 1.10000, 0.90000
  183,'BLACKSBURG~6', 138.0000,1,   1,   1,   1,1.02496159,  -3.219058, 1.10000, 0.90000, 1.10000, 0.90000
  184,'BLACKSBURG~7', 138.0000,1,   1,   1,   1,1.02456534,  -3.266209, 1.10000, 0.90000, 1.10000, 0.90000
  185,'LIBERTY 0   ', 138.0000,1,   1,   1,   1,1.00955367,  -5.782083, 1.10000, 0.90000, 1.10000, 0.90000
  186,'LIBERTY 1   ', 138.0000,1,   1,   1,   1,1.00893283,  -5.856463, 1.10000, 0.90000, 1.10000, 0.90000
  187,'ELLOREE 0   ', 138.0000,1,   1,   2,   1,1.01711440,  -8.036407, 1.10000, 0.90000, 1.10000, 0.90000
  188,'ELLOREE 1   ', 138.0000,1,   1,   2,   1,1.01695049,  -8.054561, 1.10000, 0.90000, 1.10000, 0.90000
  189,'WAGENER 0   ', 138.0000,1,   1,   2,   1,1.02783322, -13.669316, 1.10000, 0.90000, 1.10000, 0.90000
  190,'WAGENER 1   ', 138.0000,1,   1,   2,   1,1.02762890, -13.690888, 1.10000, 0.90000, 1.10000, 0.90000
  191,'TRENTON 0   ', 138.0000,1,   1,   2,   1,1.01963782, -12.257347, 1.10000, 0.90000, 1.10000, 0.90000
  192,'TRENTON 1   ', 138.0000,1,   1,   2,   1,1.01936543, -12.289803, 1.10000, 0.90000, 1.10000, 0.90000
  193,'BATESBURG 0 ', 138.0000,1,   1,   2,   1,1.01532137, -10.756351, 1.10000, 0.90000, 1.10000, 0.90000
  194,'BATESBURG 1 ', 138.0000,1,   1,   2,   1,1.01483738, -10.814058, 1.10000, 0.90000, 1.10000, 0.90000
  195,'COLUMBIA 8 0', 345.0000,1,   1,   2,   1,1.02909732,  -4.395098, 1.10000, 0.90000, 1.10000, 0.90000
  196,'COLUMBIA 8 1', 138.0000,1,   1,   2,   1,1.01971328,  -6.645404, 1.10000, 0.90000, 1.10000, 0.90000
  197,'COLUMBIA 8 2',  13.8000,2,   1,   2,   1,1.03999996,   0.472472, 1.10000, 0.90000, 1.10000, 0.90000
  198,'COLUMBIA 8 3',  13.8000,2,   1,   2,   1,1.03999996,  -1.980408, 1.10000, 0.90000, 1.10000, 0.90000
  199,'COLUMBIA 8 4', 138.0000,1,   1,   2,   1,1.01837242,  -6.794483, 1.10000, 0.90000, 1.10000, 0.90000
  200,'LITTLE MOU~1', 138.0000,1,   1,   2,   1,1.02071059,  -5.906055, 1.10000, 0.90000, 1.10000, 0.90000
...
0 / END OF BUS DATA, BEGIN LOAD DATA
    2,'1 ',1,   1,   2,    42.801,    11.414,     0.000,     0.000,     0.000,     0.000,   1,1
    4,'1 ',1,   1,   2,   132.687,    35.383,     0.000,     0.000,     0.000,     0.000,   1,1
    6,'1 ',1,   1,   1,     3.213,     0.857,     0.000,     0.000,     0.000,     0.000,   1,1
   11,'1 ',1,   1,   2,     2.472,     0.659,     0.000,     0.000,     0.000,     0.000,   1,1
   13,'1 ',1,   1,   1,    37.161,     9.910,     0.000,     0.000,     0.000,     0.000,   1,1
   20,'1 ',1,   1,   2,     4.542,     1.211,     0.000,     0.000,     0.000,     0.000,   1,1
   22,'1 ',1,   1,   2,   148.698,    39.653,     0.000,     0.000,     0.000,     0.000,   1,1
   25,'1 ',1,   1,   1,     2.283,     0.609,     0.000,     0.000,     0.000,     0.000,   1,1
   26,'1 ',1,   1,   1,    21.663,     5.777,     0.000,     0.000,     0.000,     0.000,   1,1
   28,'1 ',1,   1,   1,    62.931,    16.782,     0.000,     0.000,     0.000,     0.000,   1,1
   30,'1 ',1,   1,   2,    99.972,    26.659,     0.000,     0.000,     0.000,     0.000,   1,1
   32,'1 ',1,   1,   2,     9.765,     2.604,     0.000,     0.000,     0.000,     0.000,   1,1
   34,'1 ',1,   1,   2,    24.999,     6.666,     0.000,     0.000,     0.000,     0.000,   1,1
   36,'1 ',1,   1,   2,    43.350,    11.560,     0.000,     0.000,     0.000,     0.000,   1,1
   38,'1 ',1,   1,   1,     0.129,     0.034,     0.000,     0.000,     0.000,     0.000,   1,1
   41,'1 ',1,   1,   1,    57.990,    15.464,     0.000,     0.000,     0.000,     0.000,   1,1
   43,'1 ',1,   1,   2,     4.461,     1.190,     0.000,     0.000,     0.000,     0.000,   1,1
   45,'1 ',1,   1,   2,     2.031,     0.542,     0.000,     0.000,     0.000,     0.000,   1,1
   47,'1 ',1,   1,   1,    43.410,    11.576,     0.000,     0.000,     0.000,     0.000,   1,1
   51,'1 ',1,   1,   1,     0.354,     0.094,     0.000,     0.000,     0.000,     0.000,   1,1
   52,'1 ',1,   1,   1,    23.388,     6.237,     0.000,     0.000,     0.000,     0.000,   1,1
   54,'1 ',1,   1,   2,    34.809,     9.282,     0.000,     0.000,     0.000,     0.000,   1,1
   56,'1 ',1,   1,   1,     2.253,     0.601,     0.000,     0.000,     0.000,     0.000,   1,1
   59,'1 ',1,   1,   1,   140.937,    37.583,     0.000,     0.000,     0.000,     0.000,   1,1
   61,'1 ',1,   1,   1,     0.204,     0.054,     0.000,     0.000,     0.000,     0.000,   1,1
   64,'1 ',1,   1,   1,    34.776,     9.274,     0.000,     0.000,     0.000,     0.000,   1,1
   67,'1 ',1,   1,   1,     4.569,     1.218,     0.000,     0.000,     0.000,     0.000,   1,1
   69,'1 ',1,   1,   1,    16.962,     4.523,     0.000,     0.000,     0.000,     0.000,   1,1
   75,'1 ',1,   1,   2,     5.301,     1.414,     0.000,     0.000,     0.000,     0.000,   1,1
   77,'1 ',1,   1,   1,     6.951,     1.854,     0.000,     0.000,     0.000,     0.000,   1,1
   79,'1 ',1,   1,   1,     0.381,     0.102,     0.000,     0.000,     0.000,     0.000,   1,1
   84,'1 ',1,   1,   2,    61.407,    16.375,     0.000,     0.000,     0.000,     0.000,   1,1
   86,'1 ',1,   1,   2,    17.592,     4.691,     0.000,     0.000,     0.000,     0.000,   1,1
   88,'1 ',1,   1,   1,     5.253,     1.401,     0.000,     0.000,     0.000,     0.000,   1,1
   90,'1 ',1,   1,   2,     5.901,     1.574,     0.000,     0.000,     0.000,     0.000,   1,1
   92,'1 ',1,   1,   1,    65.028,    17.341,     0.000,     0.000,     0.000,     0.000,   1,1
   94,'1 ',1,   1,   2,     5.214,     1.390,     0.000,     0.000,     0.000,     0.000,   1,1
   96,'1 ',1,   1,   1,    33.999,     9.066,     0.000,     0.000,     0.000,     0.000,   1,1
   98,'1 ',1,   1,   1,    37.092,     9.891,     0.000,     0.000,     0.000,     0.000,   1,1
  100,'1 ',1,   1,   1,    13.521,     3.606,     0.000,     0.000,     0.000,     0.000,   1,1
  101,'1 ',1,   1,   1,     0.891,     0.238,     0.000,     0.000,     0.000,     0.000,   1,1
  103,'1 ',1,   1,   1,    38.802,    10.347,     0.000,     0.000,     0.000,     0.000,   1,1
  105,'1 ',1,   1,   2,    80.334,    21.422,     0.000,     0.000,     0.000,     0.000,   1,1
  107,'1 ',1,   1,   2,    16.005,     4.268,     0.000,     0.000,     0.000,     0.000,   1,1
  109,'1 ',1,   1,   1,    47.583,    12.689,     0.000,     0.000,     0.000,     0.000,   1,1
  111,'1 ',1,   1,   1,    62.289,    16.610,     0.000,     0.000,     0.000,     0.000,   1,1
  113,'1 ',1,   1,   2,    45.990,    12.264,     0.000,     0.000,     0.000,     0.000,   1,1
  115,'1 ',1,   1,   2,     5.061,     1.350,     0.000,     0.000,     0.000,     0.000,   1,1
  116,'1 ',1,   1,   2,     3.099,     0.826,     0.000,     0.000,     0.000,     0.000,   1,1
  118,'1 ',1,   1,   1,     8.832,     2.355,     0.000,     0.000,     0.000,     0.000,   1,1
  120,'1 ',1,   1,   1,    31.650,     8.440,     0.000,     0.000,     0.000,     0.000,   1,1
  122,'1 ',1,   1,   2,    53.364,    14.230,     0.000,     0.000,     0.000,     0.000,   1,1
  130,'1 ',1,   1,   1,   103.242,    27.531,     0.000,     0.000,     0.000,     0.000,   1,1
  132,'1 ',1,   1,   1,    25.203,     6.721,     0.000,     0.000,     0.000,     0.000,   1,1
  134,'1 ',1,   1,   1,    42.645,    11.372,     0.000,     0.000,     0.000,     0.000,   1,1
  136,'1 ',1,   1,   2,    26.757,     7.135,     0.000,     0.000,     0.000,     0.000,   1,1
  138,'1 ',1,   1,   1,    78.705,    20.988,     0.000,     0.000,     0.000,     0.000,   1,1
  140,'1 ',1,   1,   1,     0.255,     0.068,     0.000,     0.000,     0.000,     0.000,   1,1
  142,'1 ',1,   1,   1,   161.343,    43.025,     0.000,     0.000,     0.000,     0.000,   1,1
  148,'1 ',1,   1,   2,    57.420,    15.312,     0.000,     0.000,     0.000,     0.000,   1,1
  150,'1 ',1,   1,   2,     1.503,     0.401,     0.000,     0.000,     0.000,     0.000,   1,1
  153,'1 ',1,   1,   1,    93.153,    24.841,     0.000,     0.000,     0.000,     0.000,   1,1
  155,'1 ',1,   1,   1,    66.843,    17.825,     0.000,     0.000,     0.000,     0.000,   1,1
  157,'1 ',1,   1,   1,   105.453,    28.121,     0.000,     0.000,     0.000,     0.000,   1,1
  159,'1 ',1,   1,   2,    22.851,     6.094,     0.000,     0.000,     0.000,     0.000,   1,1
  161,'1 ',1,   1,   2,    25.953,     6.921,     0.000,     0.000,     0.000,     0.000,   1,1
  164,'1 ',1,   1,   2,    98.151,    26.174,     0.000,     0.000,     0.000,     0.000,   1,1
  171,'1 ',1,   1,   1,    12.375,     3.300,     0.000,     0.000,     0.000,     0.000,   1,1
  173,'1 ',1,   1,   1,     3.135,     0.836,     0.000,     0.000,     0.000,     0.000,   1,1
  174,'1 ',1,   1,   1,     7.305,     1.948,     0.000,     0.000,     0.000,     0.000,   1,1
  177,'1 ',1,   1,   1,     8.781,     2.342,     0.000,     0.000,     0.000,     0.000,   1,1
  178,'1 ',1,   1,   1,     6.813,     1.817,     0.000,     0.000,     0.000,     0.000,   1,1
  180,'1 ',1,   1,   2,    14.136,     3.770,     0.000,     0.000,     0.000,     0.000,   1,1
  182,'1 ',1,   1,   1,    82.614,    22.030,     0.000,     0.000,     0.000,     0.000,   1,1
  184,'1 ',1,   1,   1,    30.177,     8.047,     0.000,     0.000,     0.000,     0.000,   1,1
  186,'1 ',1,   1,   1,    45.348,    12.093,     0.000,     0.000,     0.000,     0.000,   1,1
  188,'1 ',1,   1,   2,    11.049,     2.946,     0.000,     0.000,     0.000,     0.000,   1,1
  190,'1 ',1,   1,   2,    14.070,     3.752,     0.000,     0.000,     0.000,     0.000,   1,1
  192,'1 ',1,   1,   2,    16.440,     4.384,     0.000,     0.000,     0.000,     0.000,   1,1
  194,'1 ',1,   1,   2,    28.695,     7.652,     0.000,     0.000,     0.000,     0.000,   1,1
  199,'1 ',1,   1,   2,    86.394,    23.038,     0.000,     0.000,     0.000,     0.000,   1,1
  201,'1 ',1,   1,   2,     8.889,     2.370,     0.000,     0.000,     0.000,     0.000,   1,1
  203,'1 ',1,   1,   1,     4.689,     1.250,     0.000,     0.000,     0.000,     0.000,   1,1
  204,'1 ',1,   1,   1,    45.666,    12.178,     0.000,     0.000,     0.000,     0.000,   1,1
  206,'1 ',1,   1,   2,     3.009,     0.802,     0.000,     0.000,     0.000,     0.000,   1,1
  207,'1 ',1,   1,   2,    22.572,     6.019,     0.000,     0.000,     0.000,     0.000,   1,1
  209,'1 ',1,   1,   1,    81.855,    21.828,     0.000,     0.000,     0.000,     0.000,   1,1
  211,'1 ',1,   1,   1,    34.278,     9.141,     0.000,     0.000,     0.000,     0.000,   1,1
  213,'1 ',1,   1,   2,    97.482,    25.995,     0.000,     0.000,     0.000,     0.000,   1,1
  215,'1 ',1,   1,   1,    84.477,    22.527,     0.000,     0.000,     0.000,     0.000,   1,1
  217,'1 ',1,   1,   1,    55.101,    14.694,     0.000,     0.000,     0.000,     0.000,   1,1
  219,'1 ',1,   1,   2,     0.333,     0.089,     0.000,     0.000,     0.000,     0.000,   1,1
  227,'1 ',1,   1,   1,     5.424,     1.446,     0.000,     0.000,     0.000,     0.000,   1,1
  229,'1 ',1,   1,   1,    54.090,    14.424,     0.000,     0.000,     0.000,     0.000,   1,1
  234,'1 ',1,   1,   2,    59.964,    15.990,     0.000,     0.000,     0.000,     0.000,   1,1
  237,'1 ',1,   1,   2,     2.712,     0.723,     0.000,     0.000,     0.000,     0.000,   1,1
  239,'1 ',1,   1,   1,    39.132,    10.435,     0.000,     0.000,     0.000,     0.000,   1,1
  241,'1 ',1,   1,   2,    19.740,     5.264,     0.000,     0.000,     0.000,     0.000,   1,1
  243,'1 ',1,   1,   2,    74.466,    19.858,     0.000,     0.000,     0.000,     0.000,   1,1
  245,'1 ',1,   1,   1,    11.835,     3.156,     0.000,     0.000,     0.000,     0.000,   1,1
  252,'1 ',1,   1,   1,   118.683,    31.649,     0.000,     0.000,     0.000,     0.000,   1,1
  259,'1 ',1,   1,   1,     8.160,     2.176,     0.000,     0.000,     0.000,     0.000,   1,1
  261,'1 ',1,   1,   1,    18.684,     4.982,     0.000,     0.000,     0.000,     0.000,   1,1
  266,'1 ',1,   1,   2,    61.782,    16.475,     0.000,     0.000,     0.000,     0.000,   1,1
  268,'1 ',1,   1,   2,   117.147,    31.239,     0.000,     0.000,     0.000,     0.000,   1,1
  270,'1 ',1,   1,   2,     6.801,     1.814,     0.000,     0.000,     0.000,     0.000,   1,1
  273,'1 ',1,   1,   2,     9.492,     2.531,     0.000,     0.000,     0.000,     0.000,   1,1
  277,'1 ',1,   1,   2,     0.405,     0.108,     0.000,     0.000,     0.000,     0.000,   1,1
  278,'1 ',1,   1,   2,     5.769,     1.538,     0.000,     0.000,     0.000,     0.000,   1,1
  280,'1 ',1,   1,   1,    16.944,     4.518,     0.000,     0.000,     0.000,     0.000,   1,1
  282,'1 ',1,   1,   1,   117.303,    31.281,     0.000,     0.000,     0.000,     0.000,   1,1
  284,'1 ',1,   1,   2,    32.649,     8.706,     0.000,     0.000,     0.000,     0.000,   1,1
  286,'1 ',1,   1,   1,     8.268,     2.205,     0.000,     0.000,     0.000,     0.000,   1,1
  288,'1 ',1,   1,   2,    58.107,    15.495,     0.000,     0.000,     0.000,     0.000,   1,1
  290,'1 ',1,   1,   1,     3.690,     0.984,     0.000,     0.000,     0.000,     0.000,   1,1
  292,'1 ',1,   1,   2,     7.617,     2.031,     0.000,     0.000,     0.000,     0.000,   1,1
  294,'1 ',1,   1,   2,    25.605,     6.828,     0.000,     0.000,     0.000,     0.000,   1,1
  296,'1 ',1,   1,   1,     7.788,     2.077,     0.000,     0.000,     0.000,     0.000,   1,1
  299,'1 ',1,   1,   1,    14.568,     3.885,     0.000,     0.000,     0.000,     0.000,   1,1
  303,'1 ',1,   1,   1,    86.757,    23.135,     0.000,     0.000,     0.000,     0.000,   1,1
  307,'1 ',1,   1,   1,    76.044,    20.278,     0.000,     0.000,     0.000,     0.000,   1,1
  309,'1 ',1,   1,   1,     9.030,     2.408,     0.000,     0.000,     0.000,     0.000,   1,1
  311,'1 ',1,   1,   1,    43.830,    11.688,     0.000,     0.000,     0.000,     0.000,   1,1
  313,'1 ',1,   1,   2,    12.438,     3.317,     0.000,     0.000,     0.000,     0.000,   1,1
  315,'1 ',1,   1,   1,     0.426,     0.114,     0.000,     0.000,     0.000,     0.000,   1,1
  317,'1 ',1,   1,   1,     3.753,     1.001,     0.000,     0.000,     0.000,     0.000,   1,1
  321,'1 ',1,   1,   2,   150.423,    40.113,     0.000,     0.000,     0.000,     0.000,   1,1
  323,'1 ',1,   1,   1,    45.270,    12.072,     0.000,     0.000,     0.000,     0.000,   1,1
  325,'1 ',1,   1,   1,   103.461,    27.590,     0.000,     0.000,     0.000,     0.000,   1,1
  327,'1 ',1,   1,   2,   121.068,    32.285,     0.000,     0.000,     0.000,     0.000,   1,1
  329,'1 ',1,   1,   1,    26.019,     6.938,     0.000,     0.000,     0.000,     0.000,   1,1
  331,'1 ',1,   1,   1,    57.174,    15.246,     0.000,     0.000,     0.000,     0.000,   1,1
  334,'1 ',1,   1,   1,     0.501,     0.134,     0.000,     0.000,     0.000,     0.000,   1,1
  335,'1 ',1,   1,   1,     0.834,     0.222,     0.000,     0.000,     0.000,     0.000,   1,1
  337,'1 ',1,   1,   1,     5.673,     1.513,     0.000,     0.000,     0.000,     0.000,   1,1
  339,'1 ',1,   1,   1,    75.105,    20.028,     0.000,     0.000,     0.000,     0.000,   1,1
  341,'1 ',1,   1,   1,    24.222,     6.459,     0.000,     0.000,     0.000,     0.000,   1,1
  343,'1 ',1,   1,   2,     2.511,     0.670,     0.000,     0.000,     0.000,     0.000,   1,1
  344,'1 ',1,   1,   2,     2.430,     0.648,     0.000,     0.000,     0.000,     0.000,   1,1
  346,'1 ',1,   1,   2,    47.583,    12.689,     0.000,     0.000,     0.000,     0.000,   1,1
  348,'1 ',1,   1,   1,    86.397,    23.039,     0.000,     0.000,     0.000,     0.000,   1,1
  355,'1 ',1,   1,   2,    19.965,     5.324,     0.000,     0.000,     0.000,     0.000,   1,1
  357,'1 ',1,   1,   1,    55.734,    14.862,     0.000,     0.000,     0.000,     0.000,   1,1
  359,'1 ',1,   1,   1,    14.586,     3.890,     0.000,     0.000,     0.000,     0.000,   1,1
  364,'1 ',1,   1,   1,    30.438,     8.117,     0.000,     0.000,     0.000,     0.000,   1,1
  366,'1 ',1,   1,   2,    56.490,    15.064,     0.000,     0.000,     0.000,     0.000,   1,1
  368,'1 ',1,   1,   1,    11.454,     3.054,     0.000,     0.000,     0.000,     0.000,   1,1
  370,'1 ',1,   1,   1,    35.604,     9.494,     0.000,     0.000,     0.000,     0.000,   1,1
  373,'1 ',1,   1,   2,    28.836,     7.690,     0.000,     0.000,     0.000,     0.000,   1,1
  375,'1 ',1,   1,   2,    24.765,     6.604,     0.000,     0.000,     0.000,     0.000,   1,1
  377,'1 ',1,   1,   1,    90.387,    24.103,     0.000,     0.000,     0.000,     0.000,   1,1
  379,'1 ',1,   1,   1,    13.011,     3.470,     0.000,     0.000,     0.000,     0.000,   1,1
  381,'1 ',1,   1,   1,    10.131,     2.702,     0.000,     0.000,     0.000,     0.000,   1,1
  383,'1 ',1,   1,   1,    29.946,     7.986,     0.000,     0.000,     0.000,     0.000,   1,1
  385,'1 ',1,   1,   1,    36.621,     9.766,     0.000,     0.000,     0.000,     0.000,   1,1
  397,'1 ',1,   1,   1,    39.954,    10.654,     0.000,     0.000,     0.000,     0.000,   1,1
  398,'1 ',1,   1,   1,    16.767,     4.471,     0.000,     0.000,     0.000,     0.000,   1,1
  400,'1 ',1,   1,   2,    23.025,     6.140,     0.000,     0.000,     0.000,     0.000,   1,1
  402,'1 ',1,   1,   1,    88.347,    23.559,     0.000,     0.000,     0.000,     0.000,   1,1
  404,'1 ',1,   1,   1,    19.770,     5.272,     0.000,     0.000,     0.000,     0.000,   1,1
  406,'1 ',1,   1,   1,     5.250,     1.400,     0.000,     0.000,     0.000,     0.000,   1,1
  416,'1 ',1,   1,   2,     6.063,     1.617,     0.000,     0.000,     0.000,     0.000,   1,1
  418,'1 ',1,   1,   1,    63.615,    16.964,     0.000,     0.000,     0.000,     0.000,   1,1
  420,'1 ',1,   1,   1,     5.226,     1.394,     0.000,     0.000,     0.000,     0.000,   1,1
  422,'1 ',1,   1,   2,    49.179,    13.114,     0.000,     0.000,     0.000,     0.000,   1,1
  424,'1 ',1,   1,   1,   157.095,    41.892,     0.000,     0.000,     0.000,     0.000,   1,1
  427,'1 ',1,   1,   1,    14.433,     3.849,     0.000,     0.000,     0.000,     0.000,   1,1
  446,'1 ',1,   1,   1,    88.683,    23.649,     0.000,     0.000,     0.000,     0.000,   1,1
  448,'1 ',1,   1,   1,    57.558,    15.349,     0.000,     0.000,     0.000,     0.000,   1,1
  450,'1 ',1,   1,   1,     1.122,     0.299,     0.000,     0.000,     0.000,     0.000,   1,1
  451,'1 ',1,   1,   1,     2.211,     0.590,     0.000,     0.000,     0.000,     0.000,   1,1
  452,'1 ',1,   1,   1,    11.163,     2.977,     0.000,     0.000,     0.000,     0.000,   1,1
  459,'1 ',1,   1,   1,    74.469,    19.858,     0.000,     0.000,     0.000,     0.000,   1,1
  460,'1 ',1,   1,   1,    26.343,     7.025,     0.000,     0.000,     0.000,     0.000,   1,1
  461,'1 ',1,   1,   1,    91.722,    24.459,     0.000,     0.000,     0.000,     0.000,   1,1
  465,'1 ',1,   1,   1,    12.522,     3.339,     0.000,     0.000,     0.000,     0.000,   1,1
  466,'1 ',1,   1,   1,    43.338,    11.557,     0.000,     0.000,     0.000,     0.000,   1,1
  467,'1 ',1,   1,   1,     0.807,     0.215,     0.000,     0.000,     0.000,     0.000,   1,1
  468,'1 ',1,   1,   1,     3.762,     1.003,     0.000,     0.000,     0.000,     0.000,   1,1
  469,'1 ',1,   1,   1,   128.532,    34.275,     0.000,     0.000,     0.000,     0.000,   1,1
  470,'1 ',1,   1,   1,    42.558,    11.349,     0.000,     0.000,     0.000,     0.000,   1,1
  472,'1 ',1,   1,   1,    49.713,    13.257,     0.000,     0.000,     0.000,     0.000,   1,1
  473,'1 ',1,   1,   1,     0.999,     0.266,     0.000,     0.000,     0.000,     0.000,   1,1
  474,'1 ',1,   1,   1,     7.002,     1.867,     0.000,     0.000,     0.000,     0.000,   1,1
  474,'2 ',1,   1,   1,    77.055,    20.548,     0.000,     0.000,     0.000,     0.000,   1,1
  474,'3 ',1,   1,   1,    83.166,    22.178,     0.000,     0.000,     0.000,     0.000,   1,1
  475,'1 ',1,   1,   2,     0.162,     0.043,     0.000,     0.000,     0.000,     0.000,   1,1
  476,'1 ',1,   1,   2,    59.856,    15.962,     0.000,     0.000,     0.000,     0.000,   1,1
  477,'1 ',1,   1,   1,    10.602,     2.827,     0.000,     0.000,     0.000,     0.000,   1,1
  477,'2 ',1,   1,   1,    20.727,     5.527,     0.000,     0.000,     0.000,     0.000,   1,1
  478,'1 ',1,   1,   1,     1.776,     0.474,     0.000,     0.000,     0.000,     0.000,   1,1
  478,'2 ',1,   1,   1,     7.380,     1.968,     0.000,     0.000,     0.000,     0.000,   1,1
  485,'1 ',1,   1,   2,    27.879,     7.434,     0.000,     0.000,     0.000,     0.000,   1,1
  486,'1 ',1,   1,   2,    68.535,    18.276,     0.000,     0.000,     0.000,     0.000,   1,1
  487,'1 ',1,   1,   1,    11.667,     3.111,     0.000,     0.000,     0.000,     0.000,   1,1
  488,'1 ',1,   1,   1,    97.896,    26.106,     0.000,     0.000,     0.000,     0.000,   1,1
  489,'1 ',1,   1,   2,     0.369,     0.098,     0.000,     0.000,     0.000,     0.000,   1,1
  489,'2 ',1,   1,   2,     3.312,     0.883,     0.000,     0.000,     0.000,     0.000,   1,1
  490,'1 ',1,   1,   1,    29.811,     7.950,     0.000,     0.000,     0.000,     0.000,   1,1
  491,'1 ',1,   1,   2,   119.529,    31.874,     0.000,     0.000,     0.000,     0.000,   1,1
...
0 / END OF LOAD DATA, BEGIN FIXED SHUNT DATA
0 / END OF FIXED SHUNT DATA, BEGIN GENERATOR DATA
    9,'1 ',   771.800,   105.657,   359.659,   -94.160,1.04000,    0,   926.160,   0.00000,   1.00000,   0.00000,   0.00000,1.00000,1,  100.0,   771.800,   231.540,   1,1.0000,   0,1.0000,   0,1.0000,   0,1.0000,0, 1.0000
   16,'1 ',   444.450,    84.628,   163.558,   -36.445,1.04000,    0,   533.340,   0.00000,   1.00000,   0.00000,   0.00000,1.00000,1,  100.0,   444.450,   133.335,   1,1.0000,   0,1.0000,   0,1.0000,   0,1.0000,0, 1.0000
   17,'1 ',   888.305,   150.048,   327.115,   -72.890,1.04000,    0,  1066.680,   0.00000,   1.00000,   0.00000,   0.00000,1.00000,1,  100.0,   888.900,   266.670,   1,1.0000,   0,1.0000,   0,1.0000,   0,1.0000,0, 1.0000
   18,'1 ',   157.600,    21.667,    57.997,   -12.923,1.04000,    0,   189.120,   0.00000,   1.00000,   0.00000,   0.00000,1.00000,1,  100.0,   157.600,    47.280,   1,1.0000,   0,1.0000,   0,1.0000,   0,1.0000,0, 1.0000
   49,'1 ',     1.300,     0.606,     0.606,    -0.159,1.04000,    0,     1.560,   0.00000,   1.00000,   0.00000,   0.00000,1.00000,1,  100.0,     1.300,     0.390,   1,1.0000,   0,1.0000,   0,1.0000,   0,1.0000,0, 1.0000
   50,'1 ',     2.600,     1.212,     1.212,    -0.317,1.04000,    0,     3.120,   0.00000,   1.00000,   0.00000,   0.00000,1.00000,1,  100.0,     2.600,     0.780,   1,1.0000,   0,1.0000,   0,1.0000,   0,1.0000,0, 1.0000
   63,'1 ',     0.960,     1.629,     1.629,    -0.355,1.04000,    0,     3.840,   0.00000,   1.00000,   0.00000,   0.00000,1.00000,0,  100.0,     3.200,     0.960,   1,1.0000,   0,1.0000,   0,1.0000,   0,1.0000,0, 1.0000
   71,'1 ',     4.000,     1.536,     1.536,    -0.196,1.04000,    0,     4.800,   0.00000,   1.00000,   0.00000,   0.00000,1.00000,1,  100.0,     4.000,     1.200,   1,1.0000,   0,1.0000,   0,1.0000,   0,1.0000,0, 1.0000
   72,'1 ',     2.000,     0.768,     0.768,    -0.098,1.04000,    0,     2.400,   0.00000,   1.00000,   0.00000,   0.00000,1.00000,1,  100.0,     2.000,     0.600,   1,1.0000,   0,1.0000,   0,1.0000,   0,1.0000,0, 1.0000
   73,'1 ',     1.400,     0.538,     0.538,    -0.069,1.04000,    0,     1.680,   0.00000,   1.00000,   0.00000,   0.00000,1.00000,1,  100.0,     1.400,     0.420,   1,1.0000,   0,1.0000,   0,1.0000,   0,1.0000,0, 1.0000
   82,'1 ',   361.900,    41.103,   138.970,   -17.733,1.04000,    0,   434.280,   0.00000,   1.00000,   0.00000,   0.00000,1.00000,1,  100.0,   361.900,   108.570,   1,1.0000,   0,1.0000,   0,1.0000,   0,1.0000,0, 1.0000
  125,'1 ',   162.000,    29.173,    62.208,    -7.938,1.04000,    0,   194.400,   0.00000,   1.00000,   0.00000,   0.00000,1.00000,0,  100.0,   162.000,    48.600,   1,1.0000,   0,1.0000,   0,1.0000,   0,1.0000,0, 1.0000
  126,'1 ',   162.000,    48.566,    62.208,    -7.938,1.04000,    0,   194.400,   0.00000,   1.00000,   0.00000,   0.00000,1.00000,0,  100.0,   162.000,    48.600,   1,1.0000,   0,1.0000,   0,1.0000,   0,1.0000,0, 1.0000
  127,'1 ',   162.000,    26.080,    62.208,    -7.938,1.04000,    0,   194.400,   0.00000,   1.00000,   0.00000,   0.00000,1.00000,1,  100.0,   162.000,    48.600,   1,1.0000,   0,1.0000,   0,1.0000,   0,1.0000,0, 1.0000
  128,'1 ',   162.000,    62.208,    62.208,    -7.938,1.04000,    0,   194.400,   0.00000,   1.00000,   0.00000,   0.00000,1.00000,1,  100.0,   162.000,    48.600,   1,1.0000,   0,1.0000,   0,1.0000,   0,1.0000,0, 1.0000
  144,'1 ',   602.550,   111.377,   221.738,   -49.409,1.04000,    0,   723.060,   0.00000,   1.00000,   0.00000,   0.00000,1.00000,1,  100.0,   602.550,   180.765,   1,1.0000,   0,1.0000,   0,1.0000,   0,1.0000,0, 1.0000
  145,'1 ',   298.154,   126.831,   221.738,   -49.409,1.04000,    0,   723.060,   0.00000,   1.00000,   0.00000,   0.00000,1.00000,1,  100.0,   602.550,   180.765,   1,1.0000,   0,1.0000,   0,1.0000,   0,1.0000,0, 1.0000
  167,'1 ',   193.500,    45.890,    74.304,    -9.482,1.04000,    0,   232.200,   0.00000,   1.00000,   0.00000,   0.00000,1.00000,1,  100.0,   193.500,    58.050,   1,1.0000,   0,1.0000,   0,1.0000,   0,1.0000,0, 1.0000
  168,'1 ',   193.500,    32.756,    74.304,    -9.482,1.04000,    0,   232.200,   0.00000,   1.00000,   0.00000,   0.00000,1.00000,1,  100.0,   193.500,    58.050,   1,1.0000,   0,1.0000,   0,1.0000,   0,1.0000,0, 1.0000
  169,'1 ',   387.000,    51.606,   148.608,   -18.963,1.04000,    0,   464.400,   0.00000,   1.00000,   0.00000,   0.00000,1.00000,1,  100.0,   387.000,   116.100,   1,1.0000,   0,1.0000,   0,1.0000,   0,1.0000,0, 1.0000
  197,'1 ',   293.600,    43.317,   136.818,   -35.819,1.04000,    0,   352.320,   0.00000,   1.00000,   0.00000,   0.00000,1.00000,1,  100.0,   293.600,    88.080,   1,1.0000,   0,1.0000,   0,1.0000,   0,1.0000,0, 1.0000
  198,'1 ',   207.300,    52.580,    96.602,   -25.291,1.04000,    0,   248.760,   0.00000,   1.00000,   0.00000,   0.00000,1.00000,1,  100.0,   207.300,    62.190,   1,1.0000,   0,1.0000,   0,1.0000,   0,1.0000,0, 1.0000
  222,'1 ',     5.200,     1.997,     1.997,    -0.255,1.04000,    0,     6.240,   0.00000,   1.00000,   0.00000,   0.00000,1.00000,1,  100.0,     5.200,     1.560,   1,1.0000,   0,1.0000,   0,1.0000,   0,1.0000,0, 1.0000
  223,'1 ',    18.000,     6.912,     6.912,    -0.882,1.04000,    0,    21.600,   0.00000,   1.00000,   0.00000,   0.00000,1.00000,1,  100.0,    18.000,     5.400,   1,1.0000,   0,1.0000,   0,1.0000,   0,1.0000,0, 1.0000
  224,'1 ',   511.200,    39.981,   196.301,   -25.049,1.04000,    0,   613.440,   0.00000,   1.00000,   0.00000,   0.00000,1.00000,1,  100.0,   511.200,   153.360,   1,1.0000,   0,1.0000,   0,1.0000,   0,1.0000,0, 1.0000
  225,'1 ',   514.800,    69.416,   197.683,   -25.225,1.04000,    0,   617.760,   0.00000,   1.00000,   0.00000,   0.00000,1.00000,1,  100.0,   514.800,   154.440,   1,1.0000,   0,1.0000,   0,1.0000,   0,1.0000,0, 1.0000
  231,'1 ',     2.900,     1.351,     1.351,    -0.354,1.04000,    0,     3.480,   0.00000,   1.00000,   0.00000,   0.00000,1.00000,1,  100.0,     2.900,     0.870,   1,1.0000,   0,1.0000,   0,1.0000,   0,1.0000,0, 1.0000
  248,'1 ',    39.960,     4.115,    67.799,   -14.785,1.04000,    0,   159.840,   0.00000,   1.00000,   0.00000,   0.00000,1.00000,0,  100.0,   133.200,    39.960,   1,1.0000,   0,1.0000,   0,1.0000,   0,1.0000,0, 1.0000
  249,'1 ',    39.960,     4.071,    67.799,   -14.785,1.04000,    0,   159.840,   0.00000,   1.00000,   0.00000,   0.00000,1.00000,0,  100.0,   133.200,    39.960,   1,1.0000,   0,1.0000,   0,1.0000,   0,1.0000,0, 1.0000
  250,'1 ',   159.840,    23.265,   271.195,   -59.141,1.04000,    0,   639.360,   0.00000,   1.00000,   0.00000,   0.00000,1.00000,0,  100.0,   532.800,   159.840,   1,1.0000,   0,1.0000,   0,1.0000,   0,1.0000,0, 1.0000
  254,'1 ',     4.100,     1.911,     1.911,    -0.500,1.04000,    0,     4.920,   0.00000,   1.00000,   0.00000,   0.00000,1.00000,0,  100.0,     4.100,     1.230,   1,1.0000,   0,1.0000,   0,1.0000,   0,1.0000,0, 1.0000
  255,'1 ',     3.300,     1.538,     1.538,    -0.403,1.04000,    0,     3.960,   0.00000,   1.00000,   0.00000,   0.00000,1.00000,0,  100.0,     3.300,     0.990,   1,1.0000,   0,1.0000,   0,1.0000,   0,1.0000,0, 1.0000
  256,'1 ',     2.900,     1.351,     1.351,    -0.354,1.04000,    0,     3.480,   0.00000,   1.00000,   0.00000,   0.00000,1.00000,0,  100.0,     2.900,     0.870,   1,1.0000,   0,1.0000,   0,1.0000,   0,1.0000,0, 1.0000
  257,'1 ',     5.400,     2.516,     2.516,    -0.659,1.04000,    0,     6.480,   0.00000,   1.00000,   0.00000,   0.00000,1.00000,0,  100.0,     5.400,     1.620,   1,1.0000,   0,1.0000,   0,1.0000,   0,1.0000,0, 1.0000
  258,'1 ',     1.100,     0.513,     0.513,    -0.134,1.04000,    0,     1.320,   0.00000,   1.00000,   0.00000,   0.00000,1.00000,1,  100.0,     1.100,     0.330,   1,1.0000,   0,1.0000,   0,1.0000,   0,1.0000,0, 1.0000
  264,'1 ',    11.760,    19.953,    19.953,    -4.351,1.04000,    0,    47.040,   0.00000,   1.00000,   0.00000,   0.00000,1.00000,0,  100.0,    39.200,    11.760,   1,1.0000,   0,1.0000,   0,1.0000,   0,1.0000,0, 1.0000
  265,'1 ',     3.180,     5.395,     5.395,    -1.177,1.04000,    0,    12.720,   0.00000,   1.00000,   0.00000,   0.00000,1.00000,0,  100.0,    10.600,     3.180,   1,1.0000,   0,1.0000,   0,1.0000,   0,1.0000,0, 1.0000
  275,'1 ',    30.360,    34.938,    51.511,   -11.233,1.04000,    0,   121.440,   0.00000,   1.00000,   0.00000,   0.00000,1.00000,0,  100.0,   101.200,    30.360,   1,1.0000,   0,1.0000,   0,1.0000,   0,1.0000,0, 1.0000
  301,'1 ',     2.900,     1.351,     1.351,    -0.354,1.04000,    0,     3.480,   0.00000,   1.00000,   0.00000,   0.00000,1.00000,1,  100.0,     2.900,     0.870,   1,1.0000,   0,1.0000,   0,1.0000,   0,1.0000,0, 1.0000
  302,'1 ',     2.900,     1.351,     1.351,    -0.354,1.04000,    0,     3.480,   0.00000,   1.00000,   0.00000,   0.00000,1.00000,1,  100.0,     2.900,     0.870,   1,1.0000,   0,1.0000,   0,1.0000,   0,1.0000,0, 1.0000
  305,'1 ',     1.000,     0.384,     0.384,    -0.049,1.04000,    0,     1.200,   0.00000,   1.00000,   0.00000,   0.00000,1.00000,1,  100.0,     1.000,     0.300,   1,1.0000,   0,1.0000,   0,1.0000,   0,1.0000,0, 1.0000
  306,'1 ',     2.400,     0.922,     0.922,    -0.118,1.04000,    0,     2.880,   0.00000,   1.00000,   0.00000,   0.00000,1.00000,1,  100.0,     2.400,     0.720,   1,1.0000,   0,1.0000,   0,1.0000,   0,1.0000,0, 1.0000
  319,'1 ',    42.300,    16.243,    16.243,    -2.073,1.04000,    0,    50.760,   0.00000,   1.00000,   0.00000,   0.00000,1.00000,1,  100.0,    42.300,    12.690,   1,1.0000,   0,1.0000,   0,1.0000,   0,1.0000,0, 1.0000
  350,'1 ',    15.000,     5.760,     5.760,    -0.735,1.04000,    0,    18.000,   0.00000,   1.00000,   0.00000,   0.00000,1.00000,1,  100.0,    15.000,     4.500,   1,1.0000,   0,1.0000,   0,1.0000,   0,1.0000,0, 1.0000
  351,'1 ',     6.200,     2.381,     2.381,    -0.304,1.04000,    0,     7.440,   0.00000,   1.00000,   0.00000,   0.00000,1.00000,1,  100.0,     6.200,     1.860,   1,1.0000,   0,1.0000,   0,1.0000,   0,1.0000,0, 1.0000
  352,'1 ',    14.400,     5.530,     5.530,    -0.706,1.04000,    0,    17.280,   0.00000,   1.00000,   0.00000,   0.00000,1.00000,1,  100.0,    14.400,     4.320,   1,1.0000,   0,1.0000,   0,1.0000,   0,1.0000,0, 1.0000
  353,'1 ',    74.000,    28.416,    28.416,    -3.626,1.04000,    0,    88.800,   0.00000,   1.00000,   0.00000,   0.00000,1.00000,1,  100.0,    74.000,    22.200,   1,1.0000,   0,1.0000,   0,1.0000,   0,1.0000,0, 1.0000
  361,'1 ',     0.480,     0.814,     0.814,    -0.178,1.04000,    0,     1.920,   0.00000,   1.00000,   0.00000,   0.00000,1.00000,0,  100.0,     1.600,     0.480,   1,1.0000,   0,1.0000,   0,1.0000,   0,1.0000,0, 1.0000
  362,'1 ',     3.300,     5.599,     5.599,    -1.221,1.04000,    0,    13.200,   0.00000,   1.00000,   0.00000,   0.00000,1.00000,0,  100.0,    11.000,     3.300,   1,1.0000,   0,1.0000,   0,1.0000,   0,1.0000,0, 1.0000
  363,'1 ',     0.960,     1.629,     1.629,    -0.355,1.04000,    0,     3.840,   0.00000,   1.00000,   0.00000,   0.00000,1.00000,0,  100.0,     3.200,     0.960,   1,1.0000,   0,1.0000,   0,1.0000,   0,1.0000,0, 1.0000
  388,'1 ',     3.000,     5.090,     5.090,    -1.110,1.04000,    0,    12.000,   0.00000,   1.00000,   0.00000,   0.00000,1.00000,0,  100.0,    10.000,     3.000,   1,1.0000,   0,1.0000,   0,1.0000,   0,1.0000,0, 1.0000
  389,'1 ',    52.000,    17.954,    88.227,   -19.240,1.04000,    0,   208.000,   0.00000,   1.00000,   0.00000,   0.00000,1.00000,0,  100.0,   173.333,    52.000,   1,1.0000,   0,1.0000,   0,1.0000,   0,1.0000,0, 1.0000
  390,'1 ',    52.000,    23.710,    88.227,   -19.240,1.04000,    0,   208.000,   0.00000,   1.00000,   0.00000,   0.00000,1.00000,0,  100.0,   173.333,    52.000,   1,1.0000,   0,1.0000,   0,1.0000,   0,1.0000,0, 1.0000
  391,'1 ',    52.000,    26.274,    88.227,   -19.240,1.04000,    0,   208.000,   0.00000,   1.00000,   0.00000,   0.00000,1.00000,0,  100.0,   173.333,    52.000,   1,1.0000,   0,1.0000,   0,1.0000,   0,1.0000,0, 1.0000
  392,'1 ',    34.920,    19.534,    59.248,   -12.920,1.04000,    0,   139.680,   0.00000,   1.00000,   0.00000,   0.00000,1.00000,0,  100.0,   116.400,    34.920,   1,1.0000,   0,1.0000,   0,1.0000,   0,1.0000,0, 1.0000
  393,'1 ',    34.920,    19.300,    59.248,   -12.920,1.04000,    0,   139.680,   0.00000,   1.00000,   0.00000,   0.00000,1.00000,0,  100.0,   116.400,    34.920,   1,1.0000,   0,1.0000,   0,1.0000,   0,1.0000,0, 1.0000
  394,'1 ',    34.920,    28.977,    59.248,   -12.920,1.04000,    0,   139.680,   0.00000,   1.00000,   0.00000,   0.00000,1.00000,0,  100.0,   116.400,    34.920,   1,1.0000,   0,1.0000,   0,1.0000,   0,1.0000,0, 1.0000
  395,'1 ',    34.920,    11.199,    59.248,   -12.920,1.04000,    0,   139.680,   0.00000,   1.00000,   0.00000,   0.00000,1.00000,0,  100.0,   116.400,    34.920,   1,1.0000,   0,1.0000,   0,1.0000,   0,1.0000,0, 1.0000
  396,'1 ',    34.920,    29.790,    59.248,   -12.920,1.04000,    0,   139.680,   0.00000,   1.00000,   0.00000,   0.00000,1.00000,0,  100.0,   116.400,    34.920,   1,1.0000,   0,1.0000,   0,1.0000,   0,1.0000,0, 1.0000
  409,'1 ',    30.000,    17.565,    50.900,   -11.100,1.04000,    0,   120.000,   0.00000,   1.00000,   0.00000,   0.00000,1.00000,0,  100.0,   100.000,    30.000,   1,1.0000,   0,1.0000,   0,1.0000,   0,1.0000,0, 1.0000
  410,'1 ',    79.431,    14.926,    69.708,   -15.201,1.04000,    0,   164.340,   0.00000,   1.00000,   0.00000,   0.00000,1.00000,1,  100.0,   136.950,    41.085,   1,1.0000,   0,1.0000,   0,1.0000,   0,1.0000,0, 1.0000
  411,'1 ',    79.431,    25.532,    69.708,   -15.201,1.04000,    0,   164.340,   0.00000,   1.00000,   0.00000,   0.00000,1.00000,1,  100.0,   136.950,    41.085,   1,1.0000,   0,1.0000,   0,1.0000,   0,1.0000,0, 1.0000
  412,'1 ',    79.431,    22.341,    69.708,   -15.201,1.04000,    0,   164.340,   0.00000,   1.00000,   0.00000,   0.00000,1.00000,1,  100.0,   136.950,    41.085,   1,1.0000,   0,1.0000,   0,1.0000,   0,1.0000,0, 1.0000
  413,'1 ',    61.597,    14.628,    69.708,   -15.201,1.04000,    0,   164.340,   0.00000,   1.00000,   0.00000,   0.00000,1.00000,1,  100.0,   136.950,    41.085,   1,1.0000,   0,1.0000,   0,1.0000,   0,1.0000,0, 1.0000
  414,'1 ',    33.330,    23.748,    56.550,   -12.332,1.04000,    0,   133.320,   0.00000,   1.00000,   0.00000,   0.00000,1.00000,0,  100.0,   111.100,    33.330,   1,1.0000,   0,1.0000,   0,1.0000,   0,1.0000,0, 1.0000
  430,'1 ',     1.000,     0.384,     0.384,    -0.049,1.04000,    0,     1.200,   0.00000,   1.00000,   0.00000,   0.00000,1.00000,1,  100.0,     1.000,     0.300,   1,1.0000,   0,1.0000,   0,1.0000,   0,1.0000,0, 1.0000
  431,'1 ',     3.300,     1.267,     1.267,    -0.162,1.04000,    0,     3.960,   0.00000,   1.00000,   0.00000,   0.00000,1.00000,1,  100.0,     3.300,     0.990,   1,1.0000,   0,1.0000,   0,1.0000,   0,1.0000,0, 1.0000
  432,'1 ',     1.200,     0.461,     0.461,    -0.059,1.04000,    0,     1.440,   0.00000,   1.00000,   0.00000,   0.00000,1.00000,1,  100.0,     1.200,     0.360,   1,1.0000,   0,1.0000,   0,1.0000,   0,1.0000,0, 1.0000
  433,'1 ',     6.700,     2.573,     2.573,    -0.328,1.04000,    0,     8.040,   0.00000,   1.00000,   0.00000,   0.00000,1.00000,1,  100.0,     6.700,     2.010,   1,1.0000,   0,1.0000,   0,1.0000,   0,1.0000,0, 1.0000
  434,'1 ',     4.300,     1.651,     1.651,    -0.211,1.04000,    0,     5.160,   0.00000,   1.00000,   0.00000,   0.00000,1.00000,1,  100.0,     4.300,     1.290,   1,1.0000,   0,1.0000,   0,1.0000,   0,1.0000,0, 1.0000
  435,'1 ',   197.000,    30.332,    75.648,    -9.653,1.04000,    0,   236.400,   0.00000,   1.00000,   0.00000,   0.00000,1.00000,0,  100.0,   197.000,    59.100,   1,1.0000,   0,1.0000,   0,1.0000,   0,1.0000,0, 1.0000
  436,'1 ',   197.000,    53.369,    75.648,    -9.653,1.04000,    0,   236.400,   0.00000,   1.00000,   0.00000,   0.00000,1.00000,0,  100.0,   197.000,    59.100,   1,1.0000,   0,1.0000,   0,1.0000,   0,1.0000,0, 1.0000
  437,'1 ',   197.000,    52.674,    75.648,    -9.653,1.04000,    0,   236.400,   0.00000,   1.00000,   0.00000,   0.00000,1.00000,1,  100.0,   197.000,    59.100,   1,1.0000,   0,1.0000,   0,1.0000,   0,1.0000,0, 1.0000
  438,'1 ',   197.000,    40.095,    75.648,    -9.653,1.04000,    0,   236.400,   0.00000,   1.00000,   0.00000,   0.00000,1.00000,1,  100.0,   197.000,    59.100,   1,1.0000,   0,1.0000,   0,1.0000,   0,1.0000,0, 1.0000
  439,'1 ',   197.000,    65.558,    75.648,    -9.653,1.04000,    0,   236.400,   0.00000,   1.00000,   0.00000,   0.00000,1.00000,1,  100.0,   197.000,    59.100,   1,1.0000,   0,1.0000,   0,1.0000,   0,1.0000,0, 1.0000
  442,'1 ',    32.400,    54.972,    54.972,   -11.988,1.04000,    0,   129.600,   0.00000,   1.00000,   0.00000,   0.00000,1.00000,0,  100.0,   108.000,    32.400,   1,1.0000,   0,1.0000,   0,1.0000,   0,1.0000,0, 1.0000
  443,'1 ',    52.500,    71.049,    89.075,   -19.425,1.04000,    0,   210.000,   0.00000,   1.00000,   0.00000,   0.00000,1.00000,0,  100.0,   175.000,    52.500,   1,1.0000,   0,1.0000,   0,1.0000,   0,1.0000,0, 1.0000
  444,'1 ',     0.990,     1.680,     1.680,    -0.366,1.04000,    0,     3.960,   0.00000,   1.00000,   0.00000,   0.00000,1.00000,0,  100.0,     3.300,     0.990,   1,1.0000,   0,1.0000,   0,1.0000,   0,1.0000,0, 1.0000
  455,'1 ',    66.850,    56.458,   113.422,   -24.735,1.04000,    0,   267.400,   0.00000,   1.00000,   0.00000,   0.00000,1.00000,1,  100.0,   222.833,    66.850,   1,1.0000,   0,1.0000,   0,1.0000,   0,1.0000,0, 1.0000
  456,'1 ',   133.700,    55.600,   226.844,   -49.469,1.04000,    0,   534.800,   0.00000,   1.00000,   0.00000,   0.00000,1.00000,1,  100.0,   445.667,   133.700,   1,1.0000,   0,1.0000,   0,1.0000,   0,1.0000,0, 1.0000
  458,'1 ',   109.600,     0.000,     0.000,     0.000,1.04000,    0,   131.520,   0.00000,   1.00000,   0.00000,   0.00000,1.00000,1,  100.0,   109.600,    32.880,   1,1.0000,   0,1.0000,   0,1.0000,   0,1.0000,0, 1.0000
  463,'1 ',     7.200,     3.355,     3.355,    -0.878,1.04000,    0,     8.640,   0.00000,   1.00000,   0.00000,   0.00000,1.00000,0,  100.0,     7.200,     2.160,   1,1.0000,   0,1.0000,   0,1.0000,   0,1.0000,0, 1.0000
  480,'1 ',    56.000,     9.617,    21.504,    -2.744,1.04000,    0,    67.200,   0.00000,   1.00000,   0.00000,   0.00000,1.00000,1,  100.0,    56.000,    16.800,   1,1.0000,   0,1.0000,   0,1.0000,   0,1.0000,0, 1.0000
  481,'1 ',    45.000,    12.100,    17.280,    -2.205,1.04000,    0,    54.000,   0.00000,   1.00000,   0.00000,   0.00000,1.00000,1,  100.0,    45.000,    13.500,   1,1.0000,   0,1.0000,   0,1.0000,   0,1.0000,0, 1.0000
  482,'1 ',    45.000,    17.280,    17.280,    -2.205,1.04000,    0,    54.000,   0.00000,   1.00000,   0.00000,   0.00000,1.00000,1,  100.0,    45.000,    13.500,   1,1.0000,   0,1.0000,   0,1.0000,   0,1.0000,0, 1.0000
  483,'1 ',    24.000,     6.247,     9.216,    -1.176,1.04000,    0,    28.800,   0.00000,   1.00000,   0.00000,   0.00000,1.00000,1,  100.0,    24.000,     7.200,   1,1.0000,   0,1.0000,   0,1.0000,   0,1.0000,0, 1.0000
...